data_Delta_5_DFT(A2)

_computing_structure_solution     'FOX http://objcryst.sourceforge.net'

_symmetry_space_group_name_H-M    'A 1 2 1'
_symmetry_space_group_name_Hall   ' A 2y'

_cell_length_a    12.08127
_cell_length_b    11.17682
_cell_length_c    11.31847
_cell_angle_alpha  90.000
_cell_angle_beta  104.234
_cell_angle_gamma  90.000
_cell_volume      1481.42
loop_
    _atom_site_label
    _atom_site_type_symbol
    _atom_site_fract_x
    _atom_site_fract_y
    _atom_site_fract_z
    _atom_site_U_iso_or_equiv
    _atom_site_occupancy
    _atom_site_adp_type
    Al1        Al        0.916900  0.745200  0.349000  0.006253 1.0000 Uiso
    Al2        Al        0.167400  0.635300  0.422400  0.006253 1.0000 Uiso
    Al3        Al        0.171000  0.617500  0.923000  0.006253 1.0000 Uiso
    Al4        Al        0.177200  0.869000  0.930200  0.006253 1.0000 Uiso
    Al5        Al        0.323100  0.003000  0.821800  0.006253 1.0000 Uiso
    Al6        Al        0.326800  0.756500  0.326200  0.006253 1.0000 Uiso
    Al7        Al        0.000000  0.994700  0.000000  0.006253 1.0000 Uiso
    Al8        Al        0.000000  0.484000  0.000000  0.006253 1.0000 Uiso
    Al9        Al        0.998200  0.990500  0.253600  0.006253 1.0000 Uiso
    Al10       Al        0.500000  0.391300  0.000000  0.006253 1.0000 Uiso
    Al11       Al        0.495500  0.884800  0.253900  0.006253 1.0000 Uiso
    Al12       Al        0.500000  0.376000  0.500000  0.006253 1.0000 Uiso
    Al13       Al        0.252800  0.377400  0.053100  0.006253 1.0000 Uiso
    Al14       Al        0.248500  0.997900  0.198400  0.006253 1.0000 Uiso
    Al15       Al        0.409700  0.630100  0.105200  0.006253 1.0000 Uiso
    Al16       Al        0.421100  0.130200  0.101800  0.006253 1.0000 Uiso
    Al17       Al        0.085600  0.741400  0.143900  0.006253 1.0000 Uiso
    Al18       Al        0.335200  0.739500  0.828500  0.006253 1.0000 Uiso
    Al99       Al        0.916900  0.745200  0.349000  0.006253 1.0000 Uiso
    O1         O         0.339400  0.375200  0.718600  0.010516 1.0000 Uiso
    O2         O         0.337400  0.626500  0.708600  0.010516 1.0000 Uiso
    O3         O         0.336100  0.875100  0.714000  0.010516 1.0000 Uiso
    O4         O         0.002000  0.110300  0.373800  0.010516 1.0000 Uiso
    O5         O         0.497300  0.492600  0.376700  0.010516 1.0000 Uiso
    O6         O         0.493900  0.761500  0.372200  0.010516 1.0000 Uiso
    O7         O         0.008200  0.615200  0.381300  0.010516 1.0000 Uiso
    O8         O         0.986600  0.881500  0.368800  0.010516 1.0000 Uiso
    O9         O         0.514300  0.994000  0.378400  0.010516 1.0000 Uiso
    O10        O         0.329800  0.122500  0.950000  0.010516 1.0000 Uiso
    O11        O         0.167700  0.245100  0.044000  0.010516 1.0000 Uiso
    O12        O         0.343000  0.359900  0.956800  0.010516 1.0000 Uiso
    O13        O         0.160200  0.498800  0.027900  0.010516 1.0000 Uiso
    O14        O         0.166000  0.497700  0.319200  0.010516 1.0000 Uiso
    O15        O         0.340500  0.626700  0.224900  0.010516 1.0000 Uiso
    O16        O         0.673000  0.638100  0.045600  0.010516 1.0000 Uiso
    O17        O         0.156500  0.747000  0.026900  0.010516 1.0000 Uiso
    O18        O         0.170900  0.737700  0.294600  0.010516 1.0000 Uiso
    O19        O         0.336900  0.876100  0.936700  0.010516 1.0000 Uiso
    O20        O         0.153900  0.515100  0.788400  0.010516 1.0000 Uiso
    O21        O         0.162700  0.495900  0.540100  0.010516 1.0000 Uiso
    O22        O         0.496700  0.761500  0.872700  0.010516 1.0000 Uiso
    O23        O         0.003100  0.880000  0.875900  0.010516 1.0000 Uiso
    O24        O         0.172700  0.749600  0.803700  0.010516 1.0000 Uiso

#  Dynamical occupancy corrections found by ObjCryst++:
#  values below 1. (100%) indicate a correction,
#  which means either that the atom is on a special position,
#  or that it is overlapping with another identical atom.
#   Al1              : 0.5000
#   Al2              : 1.0000
#   Al3              : 1.0000
#   Al4              : 1.0000
#   Al5              : 1.0000
#   Al6              : 1.0000
#   Al7              : 0.5000
#   Al8              : 0.5000
#   Al9              : 1.0000
#   Al10             : 0.5000
#   Al11             : 1.0000
#   Al12             : 0.5000
#   Al13             : 1.0000
#   Al14             : 1.0000
#   Al15             : 1.0000
#   Al16             : 1.0000
#   Al17             : 1.0000
#   Al18             : 1.0000
#   Al99             : 0.5000
#   O1               : 1.0000
#   O2               : 1.0000
#   O3               : 1.0000
#   O4               : 1.0000
#   O5               : 1.0000
#   O6               : 1.0000
#   O7               : 1.0000
#   O8               : 1.0000
#   O9               : 1.0000
#   O10              : 1.0000
#   O11              : 1.0000
#   O12              : 1.0000
#   O13              : 1.0000
#   O14              : 1.0000
#   O15              : 1.0000
#   O16              : 1.0000
#   O17              : 1.0000
#   O18              : 1.0000
#   O19              : 1.0000
#   O20              : 1.0000
#   O21              : 1.0000
#   O22              : 1.0000
#   O23              : 1.0000
#   O24              : 1.0000
#
